# created with PyMOL 2.5.0
@<TRIPOS>MOLECULE
aib
6 5 1                   
SMALL
USER_CHARGES
@<TRIPOS>ATOM
1	   N	-1.298	0.711	0.969	N.3	1	AIB0	0.000	
2	  CA	-0.053	0.002	0.646	C.3	1	AIB0	0.000	
3	   C	0.144	-0.009	-0.847	C.2	1	AIB0	0.000	
4	   O	1.261	-0.025	-1.308	O.2	1	AIB0	0.000	
5	 CB1	1.126	0.715	1.311	C.3	1	AIB0	0.000	
6	 CB2	-0.136	-1.435	1.161	C.3	1	AIB0	0.000	
@<TRIPOS>BOND
1 1 2 1
2 2 3 1
3 2 5 1
4 2 6 1
5 3 4 2
@<TRIPOS>SUBSTRUCTURE
1	AIB0	1	GROUP	1 ****	AIB
