# created with PyMOL 2.5.0
@<TRIPOS>MOLECULE
structure
9 8 1                   
SMALL
USER_CHARGES
@<TRIPOS>ATOM
1	   N	-1.198	1.861	-0.122	N.3	1	FGA0	0.000	
2	  CA	-1.130	0.510	0.451	C.3	1	FGA0	0.000	
3	   C	-2.352	-0.272	0.040	C.2	1	FGA0	0.000	
4	   O	-2.999	0.079	-0.918	O.2	1	FGA0	0.000	
5	  CB	0.125	-0.199	-0.062	C.3	1	FGA0	0.000	
6	  CG	1.368	0.525	0.460	C.3	1	FGA0	0.000	
7	  CD	2.605	-0.173	-0.045	C.2	1	FGA0	0.000	
8	 OE1	2.502	-1.149	-0.750	O.co2	1	FGA0	0.000	
9	 OE2	3.820	0.290	0.289	O.co2	1	FGA0	0.000	
@<TRIPOS>BOND
1 1 2 1
2 2 3 1
3 2 5 1
4 3 4 2
5 5 6 1
6 6 7 1
7 7 8 2
8 7 9 1
@<TRIPOS>SUBSTRUCTURE
1	FGA0	1	GROUP	1 ****	FGA
